Circuit: * C:\Users\stern\Documents\Projects\DC-Motor-Characterization\Current sensing circuit.asc

WARNING: Less than two connections to node U1:_U43:NSGNVICM1.  This node is used by E:U1:_U43:Z1.
Direct Newton iteration for .op point succeeded.

Date: Tue Mar 03 21:05:17 2026
Total elapsed time: 0.174 seconds.

tnom = 27
temp = 27
method = trap
totiter = 8
traniter = 0
tranpoints = 0
accept = 0
rejected = 0
matrix size = 169
fillins = 74
solver = Normal
Matrix Compiler1:     493 opcodes
Matrix Compiler2: 12.39 KB object code size
